ucte/ucte-converter/src/test/resources/lastCharacterIssue.uct
##C 2007.05.01
Test case for UCTE import issue in PowSyBl core package
contact : sebastien.murgey@rte-france.com
##N
##ZES
EHORTA21              0 0 122.66 3.96708       0       0       0       0       0       0       0                               N
##ZBE
BHORTA11              0 0 122.66 3.96708       0       0       0       0       0       0       0                               
##L
EHORTA21 BHORTA11 1 1      0 0.2000        0   5051
##T
##R
